New Transformer.TX1_132_11KV_2 Buses=[PMU_PULMAN_132KV, PMU_PULMAN_11KV_A] Conns=[Delta Wye] kVs=[132 11.3] kVAs=[90000 90000] XHL=11
New Transformer.TX2_132_11KV_2 Buses=[PMU_PULMAN_132KV, PMU_PULMAN_11KV_B] Conns=[Delta Wye] kVs=[132 11.3] kVAs=[90000 90000] XHL=11
