New Transformer.TX1_33KV_2 Buses=[PMU_PULMAN_132KV, PPU2_PULMAN_11KV_A] Conns=[Delta Wye] kVs=[132 11.3] kVAs=[30000 30000] XHL=11
New Transformer.TX2_33KV_2 Buses=[PMU_PULMAN_132KV, PPU2_PULMAN_11KV_B] Conns=[Delta Wye] kVs=[132 11.3] kVAs=[30000 30000] XHL=11
