New Transformer.TX1_132 Buses=[PMU_PULMAN_132KV, PMU_PULMAN_33KV_A] Conns=[Delta Wye] kVs=[132 33.3] kVAs=[90000 90000] XHL=12
New Transformer.TX2_132 Buses=[PMU_PULMAN_132KV, PMU_PULMAN_33KV_B] Conns=[Delta Wye] kVs=[132 33.3] kVAs=[90000 90000] XHL=12

